@<TRIPOS>MOLECULE
Winmostar
    9     8     1     0     0
SMALL
No Charge or Current Charge


@<TRIPOS>ATOM
      1 C1         -22.1150   -20.9800   -22.0470 c3         1 MOL      -0.097099
      2 C2         -20.9760   -21.3700   -21.1230 c3         1 MOL       0.131400
      3 H3         -21.7650   -20.2740   -22.8350 hc         1 MOL       0.044367
      4 H4         -22.5430   -21.8770   -22.5510 hc         1 MOL       0.044367
      5 H5         -22.9340   -20.4820   -21.4800 hc         1 MOL       0.044367
      6 O6         -19.9470   -21.9980   -21.8570 oh         1 MOL      -0.602802
      7 H7         -20.5340   -20.5150   -20.5580 h1         1 MOL       0.018700
      8 H8         -21.2760   -22.0460   -20.2890 h1         1 MOL       0.018700
      9 H9         -19.2390   -22.2330   -21.2450 ho         1 MOL       0.398000
@<TRIPOS>BOND
     1     1     2 1   
     2     1     3 1   
     3     1     4 1   
     4     1     5 1   
     5     2     6 1   
     6     2     7 1   
     7     2     8 1   
     8     6     9 1   
@<TRIPOS>SUBSTRUCTURE
     1 MOL         1 TEMP              0 ****  ****    0 ROOT
