@<TRIPOS>MOLECULE
Winmostar
        18        18         1         0         0
SMALL
USER_CHARGES


@<TRIPOS>ATOM
        1 C1            4.831000000        11.257000000        19.204000000 C.3       1 MOL02   -0.076400000
        2 H2            5.853000000        11.409000000        18.826000000 H         1 MOL02    0.038200000
        3 C3            4.509000000        12.328000000        20.226000000 C.3       1 MOL02   -0.076400000
        4 C4            4.718000000         9.871000000        19.804000000 C.3       1 MOL02   -0.076400000
        5 C5            5.377000000        12.190000000        21.461000000 C.3       1 MOL02   -0.076400000
        6 C6            5.585000000         9.732000000        21.038000000 C.3       1 MOL02   -0.076400000
        7 C7            5.265000000        10.803000000        22.061000000 C.3       1 MOL02   -0.076400000
        8 H8            4.132000000        11.348000000        18.332000000 H         1 MOL02    0.038200000
        9 H9            5.022000000         9.106000000        19.043000000 H         1 MOL02    0.038200000
       10 H10           4.662000000        13.341000000        19.771000000 H         1 MOL02    0.038200000
       11 H11           6.666000000         9.809000000        20.745000000 H         1 MOL02    0.038200000
       12 H12           6.446000000        12.392000000        21.188000000 H         1 MOL02    0.038200000
       13 H13           3.648000000         9.669000000        20.076000000 H         1 MOL02    0.038200000
       14 H14           3.429000000        12.250000000        20.520000000 H         1 MOL02    0.038200000
       15 H15           5.432000000         8.720000000        21.494000000 H         1 MOL02    0.038200000
       16 H16           5.072000000        12.954000000        22.222000000 H         1 MOL02    0.038200000
       17 H17           4.223000000        10.648000000        22.448000000 H         1 MOL02    0.038200000
       18 H18           5.964000000        10.712000000        22.931000000 H         1 MOL02    0.038200000
@<TRIPOS>BOND
        1         1         2 1     
        2         1         3 1     
        3         1         4 1     
        4         1         8 1     
        5         3         5 1     
        6         3        10 1     
        7         3        14 1     
        8         4         6 1     
        9         4         9 1     
       10         4        13 1     
       11         5         7 1     
       12         5        12 1     
       13         5        16 1     
       14         6         7 1     
       15         6        11 1     
       16         6        15 1     
       17         7        17 1     
       18         7        18 1     
@<TRIPOS>SUBSTRUCTURE
 1 MOL02 1
@<TRIPOS>COMMENT
 WM_BOX
        p       -24.426225000000080        48.852450000000006         0.000000000000000         0.000000000000000
        p       -24.426225000000042         0.000000000000079        48.852450000000006         0.000000000000000
        p       -24.426225000000003         0.000000000000079         0.000000000000079        48.852450000000006
