@<TRIPOS>MOLECULE
Winmostar
         9         8         1         0         0
SMALL
USER_CHARGES


@<TRIPOS>ATOM
        1 C1          -22.115000000       -20.980000000       -22.047000000 C.3       1 MOL01   -0.097099000
        2 C2          -20.976000000       -21.370000000       -21.123000000 C.3       1 MOL01    0.131400000
        3 H3          -21.765000000       -20.274000000       -22.835000000 H         1 MOL01    0.044367000
        4 H4          -22.543000000       -21.877000000       -22.551000000 H         1 MOL01    0.044367000
        5 H5          -22.934000000       -20.482000000       -21.480000000 H         1 MOL01    0.044367000
        6 O6          -19.947000000       -21.998000000       -21.857000000 O.3       1 MOL01   -0.602802000
        7 H7          -20.534000000       -20.515000000       -20.558000000 H         1 MOL01    0.018700000
        8 H8          -21.276000000       -22.046000000       -20.289000000 H         1 MOL01    0.018700000
        9 H9          -19.239000000       -22.233000000       -21.245000000 H         1 MOL01    0.398000000
@<TRIPOS>BOND
        1         1         2 1     
        2         1         3 1     
        3         1         4 1     
        4         1         5 1     
        5         2         6 1     
        6         2         7 1     
        7         2         8 1     
        8         6         9 1     
@<TRIPOS>SUBSTRUCTURE
 1 MOL01 1
@<TRIPOS>COMMENT
 WM_BOX
        p       -24.426225000000080        48.852450000000006         0.000000000000000         0.000000000000000
        p       -24.426225000000042         0.000000000000079        48.852450000000006         0.000000000000000
        p       -24.426225000000003         0.000000000000079         0.000000000000079        48.852450000000006
