@<TRIPOS>MOLECULE
Winmostar
   18    18     1     0     0
SMALL
No Charge or Current Charge


@<TRIPOS>ATOM
      1 C1           4.8310    11.2570    19.2040 c3         1 MOL      -0.076400
      2 H2           5.8530    11.4090    18.8260 hc         1 MOL       0.038200
      3 C3           4.5090    12.3280    20.2260 c3         1 MOL      -0.076400
      4 C4           4.7180     9.8710    19.8040 c3         1 MOL      -0.076400
      5 C5           5.3770    12.1900    21.4610 c3         1 MOL      -0.076400
      6 C6           5.5850     9.7320    21.0380 c3         1 MOL      -0.076400
      7 C7           5.2650    10.8030    22.0610 c3         1 MOL      -0.076400
      8 H8           4.1320    11.3480    18.3320 hc         1 MOL       0.038200
      9 H9           5.0220     9.1060    19.0430 hc         1 MOL       0.038200
     10 H10          4.6620    13.3410    19.7710 hc         1 MOL       0.038200
     11 H11          6.6660     9.8090    20.7450 hc         1 MOL       0.038200
     12 H12          6.4460    12.3920    21.1880 hc         1 MOL       0.038200
     13 H13          3.6480     9.6690    20.0760 hc         1 MOL       0.038200
     14 H14          3.4290    12.2500    20.5200 hc         1 MOL       0.038200
     15 H15          5.4320     8.7200    21.4940 hc         1 MOL       0.038200
     16 H16          5.0720    12.9540    22.2220 hc         1 MOL       0.038200
     17 H17          4.2230    10.6480    22.4480 hc         1 MOL       0.038200
     18 H18          5.9640    10.7120    22.9310 hc         1 MOL       0.038200
@<TRIPOS>BOND
     1     1     2 1   
     2     1     3 1   
     3     1     4 1   
     4     1     8 1   
     5     3     5 1   
     6     3    10 1   
     7     3    14 1   
     8     4     6 1   
     9     4     9 1   
    10     4    13 1   
    11     5     7 1   
    12     5    12 1   
    13     5    16 1   
    14     6     7 1   
    15     6    11 1   
    16     6    15 1   
    17     7    17 1   
    18     7    18 1   
@<TRIPOS>SUBSTRUCTURE
     1 MOL         1 TEMP              0 ****  ****    0 ROOT
